<?xml version="1.0" ?>
<routes>
    <vType color="1,1,0" guiShape="passenger" id="car" speedDev="0.1"/>
    <flow begin="0" end="300" from="-11694197#0" id="0" number="320" to="320948884#0" type="car" via="11743058#0"/>
    <flow begin="0" end="300" from="625851637" id="1" number="320" to="124146853#0" type="car" via="299800402#0 11685533#0 11685533#1 315355614#0"/>
    <flow begin="0" end="300" from="322361922#0" id="2" number="320" to="-625851637" type="car" via="322361922#1 322361922#3 -299800402#0"/>
    <flow begin="0" end="300" from="-320948884#0" id="3" number="160" to="54460235#4" type="car" via="322361922#1 322361922#3 54460235#0"/>
    <flow begin="0" end="300" from="-54460235#4" id="4" number="160" to="-625851637" type="car" via="-54460235#0 -299800402#0"/>
    <flow begin="0" end="300" from="54500409#4" id="5" number="160" to="-322361922#0" type="car" via="54500409#5 -11685533#1 -11685533#0 -322361922#3 -322361922#1"/>
    <flow begin="0" end="300" from="-25626142" id="6" number="160" to="-322361922#0" type="car" via="-315355614#0 -11685533#1 -11685533#0 -322361922#3 -322361922#1"/>
    <flow begin="300" end="600" from="-11694197#0" id="7" number="256" to="320948884#0" type="car" via="11743058#0"/>
    <flow begin="300" end="600" from="625851637" id="8" number="256" to="-375884812#0" type="car" via="299800402#0 54460235#0"/>
    <flow begin="300" end="600" from="322361922#0" id="9" number="224" to="54460235#4" type="car" via="322361922#1 322361922#3 54460235#0"/>
    <flow begin="300" end="600" from="-320948884#0" id="10" number="224" to="11694197#0" type="car" via="-11743058#0"/>
    <flow begin="300" end="600" from="-54460235#4" id="11" number="224" to="-625851637" type="car" via="-54460235#0 -299800402#0"/>
    <flow begin="300" end="600" from="54500409#4" id="12" number="160" to="-322361922#0" type="car" via="54500409#5 -11685533#1 -11685533#0 -322361922#3 -322361922#1"/>
    <flow begin="300" end="600" from="-25626142" id="13" number="256" to="-322361922#0" type="car" via="-315355614#0 -11685533#1 -11685533#0 -322361922#3 -322361922#1"/>
    <flow begin="600" end="900" from="-11694197#0" id="14" number="160" to="54460235#4" type="car" via="11743058#0 322361922#1 322361922#3 54460235#0"/>
    <flow begin="0" end="900" from="625851637" id="15" number="160" to="320948884#0" type="car" via="299800402#0 -322361922#3 -322361922#1"/>
    <flow begin="600" end="900" from="322361922#0" id="16" number="160" to="11694197#0" type="car" via="-11743058#0"/>
    <flow begin="600" end="900" from="-320948884#0" id="17" number="320" to="11694197#0" type="car" via="-11743058#0"/>
    <flow begin="600" end="900" from="-54460235#4" id="18" number="320" to="-625851637" type="car" via="-54460235#0 -299800402#0"/>
    <flow begin="600" end="900" from="54500409#4" id="19" number="160" to="-322361922#0" type="car" via="54500409#5 -11685533#1 -11685533#0 -322361922#3 -322361922#1"/>
    <flow begin="600" end="900" from="-25626142" id="20" number="320" to="-322361922#0" type="car" via="-315355614#0 -11685533#1 -11685533#0 -322361922#3 -322361922#1"/>
</routes>
